# generated using pymatgen
data_Sr3Li8EuAl8(NO)8
_symmetry_space_group_name_H-M   'P 1'
_cell_length_a   7.95900000
_cell_length_b   7.95900000
_cell_length_c   6.36800000
_cell_angle_alpha   90.00000000
_cell_angle_beta   90.00000000
_cell_angle_gamma   90.00000000
_symmetry_Int_Tables_number   1
_chemical_formula_structural   Sr3Li8EuAl8(NO)8
_chemical_formula_sum   'Sr3 Li8 Eu1 Al8 N8 O8'
_cell_volume   403.38529663
_cell_formula_units_Z   1
loop_
 _symmetry_equiv_pos_site_id
 _symmetry_equiv_pos_as_xyz
  1  'x, y, z'
loop_
 _atom_site_type_symbol
 _atom_site_label
 _atom_site_symmetry_multiplicity
 _atom_site_fract_x
 _atom_site_fract_y
 _atom_site_fract_z
 _atom_site_occupancy
  Eu  Eu0  1  0.50000000  0.00000000  0.25000000  1
  Sr  Sr1  1  0.50000000  0.00000000  0.75000000  1
  Sr  Sr2  1  -0.00000000  0.50000000  0.00011891  1
  Sr  Sr3  1  -0.00000000  0.50000000  0.49988109  1
  Li  Li4  1  0.12744375  0.82536213  0.25000000  1
  Li  Li5  1  0.12704639  0.82502282  0.75000000  1
  Li  Li6  1  0.87255625  0.17463787  0.25000000  1
  Li  Li7  1  0.87295361  0.17497718  0.75000000  1
  Li  Li8  1  0.17499170  0.12728967  0.00028740  1
  Li  Li9  1  0.17499170  0.12728967  0.49971260  1
  Li  Li10  1  0.82500830  0.87271033  0.00028740  1
  Li  Li11  1  0.82500830  0.87271033  0.49971260  1
  Al  Al12  1  0.35173807  0.68241996  0.00021289  1
  Al  Al13  1  0.35173807  0.68241996  0.49978711  1
  Al  Al14  1  0.64826193  0.31758004  0.00021289  1
  Al  Al15  1  0.64826193  0.31758004  0.49978711  1
  Al  Al16  1  0.31780577  0.35109081  0.25000000  1
  Al  Al17  1  0.31777456  0.35154217  0.75000000  1
  Al  Al18  1  0.68219423  0.64890919  0.25000000  1
  Al  Al19  1  0.68222544  0.64845783  0.75000000  1
  N  N20  1  0.58430477  0.73091011  -0.00007179  1
  N  N21  1  0.58430477  0.73091011  0.50007179  1
  N  N22  1  0.41569523  0.26908989  -0.00007179  1
  N  N23  1  0.41569523  0.26908989  0.50007179  1
  N  N24  1  0.27019713  0.58410219  0.25000000  1
  N  N25  1  0.27041286  0.58437089  0.75000000  1
  N  N26  1  0.72980287  0.41589781  0.25000000  1
  N  N27  1  0.72958714  0.41562911  0.75000000  1
  O  O28  1  0.25250920  0.88699606  -0.00008266  1
  O  O29  1  0.25250920  0.88699606  0.50008266  1
  O  O30  1  0.74749080  0.11300394  -0.00008266  1
  O  O31  1  0.74749080  0.11300394  0.50008266  1
  O  O32  1  0.11279815  0.25309031  0.25000000  1
  O  O33  1  0.11273122  0.25349138  0.75000000  1
  O  O34  1  0.88720185  0.74690969  0.25000000  1
  O  O35  1  0.88726878  0.74650862  0.75000000  1
