# generated using pymatgen
data_Sr3Li8EuAl8(NO)8
_symmetry_space_group_name_H-M   'P 1'
_cell_length_a   8.00485097
_cell_length_b   8.00485097
_cell_length_c   6.39985978
_cell_angle_alpha   90.00000000
_cell_angle_beta   90.00000000
_cell_angle_gamma   90.00000000
_symmetry_Int_Tables_number   1
_chemical_formula_structural   Sr3Li8EuAl8(NO)8
_chemical_formula_sum   'Sr3 Li8 Eu1 Al8 N8 O8'
_cell_volume   410.08790497
_cell_formula_units_Z   1
loop_
 _symmetry_equiv_pos_site_id
 _symmetry_equiv_pos_as_xyz
  1  'x, y, z'
loop_
 _atom_site_type_symbol
 _atom_site_label
 _atom_site_symmetry_multiplicity
 _atom_site_fract_x
 _atom_site_fract_y
 _atom_site_fract_z
 _atom_site_occupancy
  Eu  Eu0  1  0.50000000  0.00000000  0.25000000  1
  Sr  Sr1  1  0.50000000  0.00000000  0.75000000  1
  Sr  Sr2  1  0.00000000  0.50000000  0.00009930  1
  Sr  Sr3  1  0.00000000  0.50000000  0.49990070  1
  Li  Li4  1  0.12568471  0.82654005  0.25000000  1
  Li  Li5  1  0.12534406  0.82629134  0.75000000  1
  Li  Li6  1  0.87431529  0.17345995  0.25000000  1
  Li  Li7  1  0.87465594  0.17370866  0.75000000  1
  Li  Li8  1  0.17351474  0.12571140  0.00011871  1
  Li  Li9  1  0.17351474  0.12571140  0.49988129  1
  Li  Li10  1  0.82648526  0.87428860  0.00011871  1
  Li  Li11  1  0.82648526  0.87428860  0.49988129  1
  Al  Al12  1  0.35084176  0.68244058  0.00013330  1
  Al  Al13  1  0.35084176  0.68244058  0.49986670  1
  Al  Al14  1  0.64915824  0.31755942  0.00013330  1
  Al  Al15  1  0.64915824  0.31755942  0.49986670  1
  Al  Al16  1  0.31784161  0.35050234  0.25000000  1
  Al  Al17  1  0.31781068  0.35081909  0.75000000  1
  Al  Al18  1  0.68215839  0.64949766  0.25000000  1
  Al  Al19  1  0.68218932  0.64918091  0.75000000  1
  N  N20  1  0.58325401  0.73159491  -0.00017577  1
  N  N21  1  0.58325401  0.73159491  0.50017577  1
  N  N22  1  0.41674599  0.26840509  -0.00017577  1
  N  N23  1  0.41674599  0.26840509  0.50017577  1
  N  N24  1  0.26919588  0.58323483  0.25000000  1
  N  N25  1  0.26928648  0.58345522  0.75000000  1
  N  N26  1  0.73080412  0.41676517  0.25000000  1
  N  N27  1  0.73071352  0.41654478  0.75000000  1
  O  O28  1  0.24902582  0.88740903  -0.00023850  1
  O  O29  1  0.24902582  0.88740903  0.50023850  1
  O  O30  1  0.75097418  0.11259097  -0.00023850  1
  O  O31  1  0.75097418  0.11259097  0.50023850  1
  O  O32  1  0.11229476  0.24989457  0.25000000  1
  O  O33  1  0.11223134  0.25025797  0.75000000  1
  O  O34  1  0.88770524  0.75010543  0.25000000  1
  O  O35  1  0.88776866  0.74974203  0.75000000  1
